Version 4
SHEET 1 1220 692
WIRE -528 -128 -832 -128
WIRE -464 -128 -528 -128
WIRE -528 -48 -528 -128
WIRE 592 -48 480 -48
WIRE 720 -48 592 -48
WIRE -464 -16 -464 -128
WIRE 480 48 480 -48
WIRE -560 64 -624 64
WIRE 0 96 -288 96
WIRE 272 96 80 96
WIRE 352 96 272 96
WIRE 720 96 720 -48
WIRE -720 128 -912 128
WIRE -560 128 -720 128
WIRE 352 128 352 96
WIRE 432 128 352 128
WIRE -912 160 -912 128
WIRE -624 176 -624 64
WIRE 96 176 -624 176
WIRE 272 176 96 176
WIRE 368 176 272 176
WIRE 480 176 480 144
WIRE 480 176 448 176
WIRE 576 176 480 176
WIRE -912 256 -912 240
WIRE -528 256 -528 240
WIRE -528 256 -912 256
WIRE -464 256 -464 208
WIRE -464 256 -528 256
WIRE 160 256 -464 256
WIRE 480 256 160 256
WIRE 576 256 576 240
WIRE 576 256 480 256
WIRE -336 320 -720 320
WIRE -272 320 -336 320
WIRE -336 368 -336 320
WIRE -272 400 -272 320
WIRE -720 416 -720 320
WIRE 304 416 48 416
WIRE 560 416 304 416
WIRE 48 432 48 416
WIRE 592 432 592 400
WIRE 304 448 304 416
WIRE 560 448 560 416
WIRE 96 464 96 176
WIRE 160 464 96 464
WIRE 256 464 256 400
WIRE 256 464 240 464
WIRE 272 464 256 464
WIRE 336 464 336 400
WIRE 400 464 336 464
WIRE 512 464 512 400
WIRE 512 464 480 464
WIRE 528 464 512 464
WIRE -368 480 -560 480
WIRE 336 480 336 464
WIRE 592 480 592 432
WIRE -96 496 -448 496
WIRE -96 512 -96 496
WIRE 48 512 -32 512
WIRE -624 544 -624 176
WIRE -368 544 -624 544
WIRE -448 560 -448 496
WIRE -560 592 -560 480
WIRE -560 592 -608 592
WIRE -528 592 -560 592
WIRE -448 592 -448 560
WIRE 304 592 304 512
WIRE 304 592 48 592
WIRE 560 592 560 512
WIRE 560 592 304 592
FLAG 160 256 0
FLAG -832 -48 0
FLAG 720 176 0
FLAG -32 512 0
FLAG 272 496 0
FLAG 528 496 0
FLAG -720 496 0
FLAG -608 672 0
FLAG 592 -48 Last
FLAG 272 96 Q1_Gate
FLAG 592 432 R1.inv
FLAG -448 560 R1.ninv
FLAG -720 128 U1+
FLAG 272 176 R1
FLAG -336 656 0
FLAG -272 624 0
SYMBOL nmos 432 48 R0
SYMATTR InstName M1
SYMATTR Value IRFP240
SYMBOL res 464 160 R0
SYMATTR InstName R1
SYMATTR Value 0.1
SYMBOL voltage 720 80 R0
WINDOW 123 0 0 Left 0
WINDOW 39 24 124 Left 2
SYMATTR SpiceLine Rser=0
SYMATTR InstName V1
SYMATTR Value PWL(0 20 0.1 20 0.12 10 0.14 14 0.19 0)
SYMBOL voltage -832 -144 R0
WINDOW 123 0 0 Left 0
WINDOW 39 0 0 Left 0
SYMATTR InstName V2
SYMATTR Value 12
SYMBOL voltage -912 144 R0
WINDOW 123 0 0 Left 0
WINDOW 39 0 0 Left 0
SYMATTR InstName V3
SYMATTR Value PWL(0 0 0.05 0.5 0.07 0.4 0.09 0.7 0.2 0.7)
SYMBOL res 464 160 R90
WINDOW 0 0 56 VBottom 2
WINDOW 3 32 56 VTop 2
SYMATTR InstName R7
SYMATTR Value 0
SYMBOL cap 560 176 R0
SYMATTR InstName C1
SYMATTR Value 1µ
SYMBOL OpAmps\\LTC2057 -400 96 R0
SYMATTR InstName U4
SYMBOL res 96 80 R90
WINDOW 0 0 56 VBottom 2
WINDOW 3 32 56 VTop 2
SYMATTR InstName R10
SYMATTR Value 0
SYMBOL OpAmps\\AD820 304 416 R0
SYMATTR InstName U1
SYMBOL OpAmps\\AD820 560 416 R0
SYMATTR InstName U2
SYMBOL voltage 48 416 R0
WINDOW 123 0 0 Left 0
WINDOW 39 0 0 Left 0
SYMATTR InstName V4
SYMATTR Value 15
SYMBOL voltage 48 496 R0
WINDOW 123 0 0 Left 0
WINDOW 39 0 0 Left 0
SYMATTR InstName V5
SYMATTR Value 15
SYMBOL res 256 448 R90
WINDOW 0 0 56 VBottom 2
WINDOW 3 32 56 VTop 2
SYMATTR InstName R2
SYMATTR Value 5000
SYMATTR SpiceLine tol=0
SYMBOL res 352 384 R90
WINDOW 0 0 56 VBottom 2
WINDOW 3 32 56 VTop 2
SYMATTR InstName R3
SYMATTR Value 5000
SYMATTR SpiceLine tol=1
SYMBOL res 496 448 R90
WINDOW 0 0 56 VBottom 2
WINDOW 3 32 56 VTop 2
SYMATTR InstName R4
SYMATTR Value 5000
SYMATTR SpiceLine tol=1
SYMBOL res 608 384 R90
WINDOW 0 0 56 VBottom 2
WINDOW 3 32 56 VTop 2
SYMATTR InstName R5
SYMATTR Value 20000
SYMATTR SpiceLine tol=1
SYMBOL voltage -720 400 R0
WINDOW 123 0 0 Left 0
WINDOW 39 0 0 Left 0
SYMATTR InstName V6
SYMATTR Value 5
SYMBOL res -432 576 R90
WINDOW 0 0 56 VBottom 2
WINDOW 3 32 56 VTop 2
SYMATTR InstName R6
SYMATTR Value 15000
SYMBOL res -624 576 R0
SYMATTR InstName R8
SYMATTR Value 5000
SYMBOL OpAmps\\LTC2057 -208 512 R0
SYMATTR InstName U5
TEXT -160 280 Left 2 !.tran 200ms startup
